examples/test_perturbation_outputs/pert_min_loss/pglib_opf_case240_pserc.m
%% MATPOWER Case Format : Version 2
function mpc = pglib_opf_case240_pserc
mpc.version = '2';

%%-----  Power Flow Data  -----%%
%% system MVA base
mpc.baseMVA = 100.0;
%% bus data
%    bus_i    type    Pd    Qd    Gs    Bs    area    Vm    Va    baseKV    zone    Vmax    Vmin
mpc.bus = [
	1001	1	0.0	0.0	0.0	0.0	10	1.0	0.0	500.0	1	1.1	0.9				
	1002	1	226.8419	-37.472	0.0	0.0	10	1.0	0.0	345.0	1	1.1	0.9				
	1003	1	2153.3224	366.856	0.0	0.0	10	1.0	0.0	230.0	1	1.1	0.9				
	1004	1	1037.9499	5.521	0.0	0.0	10	1.0	0.0	345.0	1	1.1	0.9				
	1032	2	0.0	0.0	0.0	0.0	10	1.0	0.0	20.0	1	1.1	0.9				
	1034	2	0.0	0.0	0.0	0.0	10	1.0	0.0	20.0	1	1.1	0.9				
	1101	1	4527.3661	-137.044	0.0	0.0	10	1.0	0.0	500.0	1	1.1	0.9				
	1102	1	176.4436	23.004	0.0	0.0	10	1.0	0.0	345.0	1	1.1	0.9				
	1131	2	0.0	0.0	0.0	0.0	10	1.0	0.0	20.0	1	1.1	0.9				
	1201	1	166.9882	-2.012	0.0	0.0	10	1.0	0.0	500.0	1	1.1	0.9				
	1202	1	875.61	287.131	0.0	0.0	10	1.0	0.0	500.0	1	1.1	0.9				
	1232	2	0.0	0.0	0.0	0.0	10	1.0	0.0	20.0	1	1.1	0.9				
	1301	1	2704.7793	352.826	0.0	0.0	10	1.0	0.0	500.0	1	1.1	0.9				
	1302	1	17.5556	2.304	0.0	0.0	10	1.0	0.0	500.0	1	1.1	0.9				
	1303	1	6235.136	813.349	0.0	0.0	10	1.0	0.0	345.0	1	1.1	0.9				
	1331	2	0.0	0.0	0.0	0.0	10	1.0	0.0	20.0	1	1.1	0.9				
	1333	2	0.0	0.0	0.0	0.0	10	1.0	0.0	20.0	1	1.1	0.9				
	1401	1	6535.5365	1524.594	0.0	0.0	10	1.0	0.0	500.0	1	1.1	0.9				
	1402	1	5366.6305	-600.162	0.0	0.0	10	1.0	0.0	500.0	1	1.1	0.9				
	1403	1	0.0	0.0	0.0	0.0	10	1.0	0.0	230.0	1	1.1	0.9				
	1431	2	0.0	0.0	0.0	0.0	10	1.0	0.0	20.0	1	1.1	0.9				
	2000	1	2207.188	287.916	0.0	0.0	20	1.0	0.0	230.0	1	1.1	0.9				
	2030	2	0.0	0.0	0.0	0.0	20	1.0	0.0	20.0	1	1.1	0.9				
	2100	1	281.1513	54.83	0.0	0.0	21	1.0	0.0	230.0	1	1.1	0.9				
	2130	2	0.0	0.0	0.0	0.0	21	1.0	0.0	20.0	1	1.1	0.9				
	2201	1	0.0	0.0	0.0	0.0	22	1.0	0.0	500.0	1	1.1	0.9				
	2202	1	1545.949	268.565	0.0	0.0	22	1.0	0.0	230.0	1	1.1	0.9				
	2203	1	1708.5525	278.273	0.0	0.0	22	1.0	0.0	230.0	1	1.1	0.9				
	2233	2	0.0	0.0	0.0	0.0	22	1.0	0.0	20.0	1	1.1	0.9				
	2301	1	0.0	0.0	0.0	0.0	22	1.0	0.0	500.0	1	1.1	0.9				
	2302	1	0.0	0.0	0.0	0.0	22	1.0	0.0	230.0	1	1.1	0.9				
	2332	2	0.0	0.0	0.0	0.0	22	1.0	0.0	20.0	1	1.1	0.9				
	2400	1	843.2926	76.663	0.0	0.0	24	1.0	0.0	500.0	1	1.1	0.9				
	2401	1	882.3636	105.21400000000001	0.0	0.0	24	1.0	0.0	500.0	1	1.1	0.9				
	2402	1	1080.0201	81.979	0.0	0.0	24	1.0	0.0	500.0	1	1.1	0.9				
	2403	1	1050.004	38.543	0.0	0.0	24	1.0	0.0	500.0	1	1.1	0.9				
	2404	1	0.0	0.0	0.0	0.0	24	1.0	0.0	500.0	1	1.1	0.9				
	2405	1	824.6826000000001	22.901	0.0	0.0	24	1.0	0.0	230.0	1	1.1	0.9				
	2406	1	737.4036	-40.751	0.0	0.0	24	1.0	0.0	230.0	1	1.1	0.9				
	2407	1	1732.771	-36.535	0.0	0.0	24	1.0	0.0	230.0	1	1.1	0.9				
	2408	1	1743.2767999999999	-72.623	0.0	0.0	24	1.0	0.0	230.0	1	1.1	0.9				
	2409	1	1601.7777000000003	-86.698	0.0	0.0	24	1.0	0.0	230.0	1	1.1	0.9				
	2410	1	1576.7872	58.184000000000005	0.0	0.0	24	1.0	0.0	230.0	1	1.1	0.9				
	2411	1	1087.6239	75.955	0.0	0.0	24	1.0	0.0	230.0	1	1.1	0.9				
	2438	2	0.0	0.0	0.0	0.0	24	1.0	0.0	20.0	1	1.1	0.9				
	2501	1	0.0	0.0	0.0	0.0	25	1.0	0.0	500.0	1	1.1	0.9				
	2502	1	2369.1531	-91.905	0.0	0.0	25	1.0	0.0	230.0	1	1.1	0.9				
	2503	1	1845.9256	201.99100000000004	0.0	0.0	25	1.0	0.0	230.0	1	1.1	0.9				
	2533	2	0.0	0.0	0.0	0.0	25	1.0	0.0	20.0	1	1.1	0.9				
	2600	1	-1863.9044	0.0	0.0	0.0	90	1.0	0.0	500.0	1	1.1	0.9				
	2601	1	0.0	0.0	0.0	0.0	26	1.0	0.0	500.0	1	1.1	0.9				
	2602	1	99.2784	12.955	0.0	0.0	26	1.0	0.0	500.0	1	1.1	0.9				
	2603	1	0.0	0.0	0.0	0.0	26	1.0	0.0	500.0	1	1.1	0.9				
	2604	1	2050.7816	0.0	0.0	0.0	90	1.0	0.0	345.0	1	1.1	0.9				
	2605	1	0.0	0.0	0.0	0.0	26	1.0	0.0	287.0	1	1.1	0.9				
	2606	1	0.0	0.0	0.0	0.0	26	1.0	0.0	287.0	1	1.1	0.9				
	2607	1	0.0	0.0	0.0	0.0	26	1.0	0.0	287.0	1	1.1	0.9				
	2608	1	99.2784	12.955	0.0	0.0	26	1.0	0.0	230.0	1	1.1	0.9				
	2609	1	134.0261	26.805	0.0	0.0	26	1.0	0.0	230.0	1	1.1	0.9				
	2610	1	99.2784	12.955	0.0	0.0	26	1.0	0.0	230.0	1	1.1	0.9				
	2611	1	99.2784	12.955	0.0	0.0	26	1.0	0.0	230.0	1	1.1	0.9				
	2612	1	120.12770000000002	24.819	0.0	0.0	26	1.0	0.0	230.0	1	1.1	0.9				
	2613	1	317.693	64.532	0.0	0.0	26	1.0	0.0	230.0	1	1.1	0.9				
	2614	1	137.0047	27.798000000000002	0.0	0.0	26	1.0	0.0	230.0	1	1.1	0.9				
	2615	1	801.9755999999999	131.148	0.0	0.0	26	1.0	0.0	230.0	1	1.1	0.9				
	2616	1	116.1565	23.827	0.0	0.0	26	1.0	0.0	230.0	1	1.1	0.9				
	2617	1	120.12770000000002	24.819	0.0	0.0	26	1.0	0.0	230.0	1	1.1	0.9				
	2618	1	881.2994	-6.155	0.0	0.0	26	1.0	0.0	230.0	1	1.1	0.9				
	2619	1	-2773.8339	0.0	0.0	0.0	90	1.0	0.0	230.0	1	1.1	0.9				
	2620	1	203.7206	17.473	0.0	0.0	26	1.0	0.0	230.0	1	1.1	0.9				
	2621	1	235.48969999999997	-62.745	0.0	0.0	26	1.0	0.0	138.0	1	1.1	0.9				
	2630	2	0.0	0.0	0.0	0.0	26	1.0	0.0	20.0	1	1.1	0.9				
	2631	2	0.0	0.0	0.0	0.0	26	1.0	0.0	20.0	1	1.1	0.9				
	2634	2	0.0	0.0	0.0	0.0	90	1.0	0.0	20.0	1	1.1	0.9				
	2637	2	0.0	0.0	0.0	0.0	26	1.0	0.0	20.0	1	1.1	0.9				
	2638	2	0.0	0.0	0.0	0.0	26	1.0	0.0	20.0	1	1.1	0.9				
	2901	1	0.0	0.0	0.0	0.0	24	1.0	0.0	500.0	1	1.1	0.9				
	2902	1	0.0	0.0	0.0	0.0	24	1.0	0.0	500.0	1	1.1	0.9				
	3101	1	341.3057	52.82800000000001	0.0	0.0	31	1.0	0.0	230.0	1	1.1	0.9				
	3102	1	159.4648	24.929	0.0	0.0	31	1.0	0.0	230.0	1	1.1	0.9				
	3103	1	419.6109	59.777	0.0	0.0	32	1.0	0.0	230.0	1	1.1	0.9				
	3104	1	309.9718	40.133	0.0	0.0	31	1.0	0.0	115.0	1	1.1	0.9				
	3105	1	239.30179999999996	49.091	0.0	0.0	31	1.0	0.0	115.0	1	1.1	0.9				
	3133	2	0.0	0.0	0.0	0.0	32	1.0	0.0	20.0	1	1.1	0.9				
	3135	2	0.0	0.0	0.0	0.0	31	1.0	0.0	20.0	1	1.1	0.9				
	3201	1	462.47689999999994	97.849	0.0	0.0	32	1.0	0.0	230.0	1	1.1	0.9				
	3202	1	586.1795	83.473	0.0	0.0	32	1.0	0.0	230.0	1	1.1	0.9				
	3203	1	657.1046	158.476	0.0	0.0	32	1.0	0.0	230.0	1	1.1	0.9				
	3204	1	668.7879	95.313	0.0	0.0	32	1.0	0.0	230.0	1	1.1	0.9				
	3205	1	546.0609	77.782	0.0	0.0	32	1.0	0.0	230.0	1	1.1	0.9				
	3234	2	0.0	0.0	0.0	0.0	32	1.0	0.0	20.0	1	1.1	0.9				
	3301	1	0.0	0.0	0.0	0.0	32	1.0	0.0	500.0	1	1.1	0.9				
	3302	1	345.3259	85.791	0.0	0.0	32	1.0	0.0	230.0	1	1.1	0.9				
	3303	1	625.4106	150.715	0.0	0.0	32	1.0	0.0	230.0	1	1.1	0.9				
	3304	1	533.4822	122.61599999999999	0.0	0.0	32	1.0	0.0	230.0	1	1.1	0.9				
	3305	1	430.3196	61.224999999999994	0.0	0.0	32	1.0	0.0	230.0	1	1.1	0.9				
	3333	2	0.0	0.0	0.0	0.0	32	1.0	0.0	20.0	1	1.1	0.9				
	3401	1	557.7071	135.909	0.0	0.0	34	1.0	0.0	230.0	1	1.1	0.9				
	3402	1	0.0	0.0	0.0	0.0	34	1.0	0.0	230.0	1	1.1	0.9				
	3403	1	515.9687	73.583	0.0	0.0	34	1.0	0.0	230.0	1	1.1	0.9				
	3404	1	438.461	62.075	0.0	0.0	34	1.0	0.0	230.0	1	1.1	0.9				
	3405	1	448.8976	63.723	0.0	0.0	34	1.0	0.0	230.0	1	1.1	0.9				
	3432	2	0.0	0.0	0.0	0.0	34	1.0	0.0	20.0	1	1.1	0.9				
	3433	2	0.0	0.0	0.0	0.0	34	1.0	0.0	20.0	1	1.1	0.9				
	3501	1	625.0164	89.015	0.0	0.0	35	1.0	0.0	230.0	1	1.1	0.9				
	3531	2	0.0	0.0	0.0	0.0	35	1.0	0.0	20.0	1	1.1	0.9				
	3601	1	104.85639999999998	14.844	0.0	0.0	36	1.0	0.0	115.0	1	1.1	0.9				
	3631	2	0.0	0.0	0.0	0.0	36	1.0	0.0	20.0	1	1.1	0.9				
	3701	1	317.0506	15.847	0.0	0.0	37	1.0	0.0	115.0	1	1.1	0.9				
	3731	2	0.0	0.0	0.0	0.0	37	1.0	0.0	20.0	1	1.1	0.9				
	3801	1	191.2229	47.411	0.0	0.0	38	1.0	0.0	500.0	1	1.1	0.9				
	3802	1	0.0	0.0	0.0	0.0	38	1.0	0.0	500.0	1	1.1	0.9				
	3803	1	0.0	0.0	0.0	0.0	38	1.0	0.0	500.0	1	1.1	0.9				
	3804	1	223.64039999999997	55.318	0.0	0.0	38	1.0	0.0	230.0	1	1.1	0.9				
	3805	1	499.3888	163.106	0.0	0.0	38	1.0	0.0	230.0	1	1.1	0.9				
	3806	1	289.5858	41.366	0.0	0.0	38	1.0	0.0	230.0	1	1.1	0.9				
	3831	2	0.0	0.0	0.0	0.0	38	1.0	0.0	20.0	1	1.1	0.9				
	3835	2	0.0	0.0	0.0	0.0	38	1.0	0.0	20.0	1	1.1	0.9				
	3836	2	0.0	0.0	0.0	0.0	38	1.0	0.0	20.0	1	1.1	0.9				
	3891	1	0.0	0.0	0.0	0.0	38	1.0	0.0	500.0	1	1.1	0.9				
	3892	1	0.0	0.0	0.0	0.0	38	1.0	0.0	500.0	1	1.1	0.9				
	3893	1	0.0	0.0	0.0	0.0	38	1.0	0.0	500.0	1	1.1	0.9				
	3894	1	0.0	0.0	0.0	0.0	38	1.0	0.0	500.0	1	1.1	0.9				
	3895	1	0.0	0.0	0.0	0.0	38	1.0	0.0	500.0	1	1.1	0.9				
	3896	1	0.0	0.0	0.0	0.0	38	1.0	0.0	500.0	1	1.1	0.9				
	3897	1	0.0	0.0	0.0	0.0	38	1.0	0.0	500.0	1	1.1	0.9				
	3901	1	0.0	0.0	0.0	0.0	39	1.0	0.0	500.0	1	1.1	0.9				
	3902	1	152.9913	38.248	0.0	0.0	39	1.0	0.0	500.0	1	1.1	0.9				
	3903	1	213.24780000000004	30.268999999999995	0.0	0.0	39	1.0	0.0	500.0	1	1.1	0.9				
	3904	1	0.0	0.0	0.0	0.0	39	1.0	0.0	500.0	1	1.1	0.9				
	3905	1	0.0	0.0	0.0	0.0	39	1.0	0.0	500.0	1	1.1	0.9				
	3906	1	0.0	0.0	0.0	0.0	39	1.0	0.0	500.0	1	1.1	0.9				
	3907	1	461.35729999999995	63.071	0.0	0.0	39	1.0	0.0	230.0	1	1.1	0.9				
	3908	1	200.2788	24.716	0.0	0.0	39	1.0	0.0	230.0	1	1.1	0.9				
	3909	1	170.957	39.785	0.0	0.0	39	1.0	0.0	230.0	1	1.1	0.9				
	3910	1	241.83919999999998	34.44	0.0	0.0	39	1.0	0.0	230.0	1	1.1	0.9				
	3911	1	233.13450000000003	47.114	0.0	0.0	39	1.0	0.0	230.0	1	1.1	0.9				
	3912	1	174.5029	-0.634	0.0	0.0	39	1.0	0.0	230.0	1	1.1	0.9				
	3913	1	329.5484	43.435	0.0	0.0	39	1.0	0.0	230.0	1	1.1	0.9				
	3914	1	227.7536	52.549	0.0	0.0	39	1.0	0.0	230.0	1	1.1	0.9				
	3915	1	254.45890000000003	53.40200000000001	0.0	0.0	39	1.0	0.0	230.0	1	1.1	0.9				
	3916	1	155.0024	0.0	0.0	0.0	39	1.0	0.0	230.0	1	1.1	0.9				
	3917	1	238.1882	43.995	0.0	0.0	39	1.0	0.0	230.0	1	1.1	0.9				
	3918	1	319.2809	75.464	0.0	0.0	39	1.0	0.0	230.0	1	1.1	0.9				
	3919	1	184.5093	24.094	0.0	0.0	39	1.0	0.0	230.0	1	1.1	0.9				
	3920	1	172.5018	23.677	0.0	0.0	39	1.0	0.0	230.0	1	1.1	0.9				
	3921	1	150.8902	34.821	0.0	0.0	39	1.0	0.0	230.0	1	1.1	0.9				
	3922	1	253.4454	31.919000000000004	0.0	0.0	39	1.0	0.0	230.0	1	1.1	0.9				
	3923	1	399.0618	67.021	0.0	0.0	39	1.0	0.0	230.0	1	1.1	0.9				
	3924	1	332.4879	47.165	0.0	0.0	39	1.0	0.0	230.0	1	1.1	0.9				
	3925	1	0.0	0.0	0.0	0.0	39	1.0	0.0	115.0	1	1.1	0.9				
	3926	1	267.3529	16.668	0.0	0.0	39	1.0	0.0	115.0	1	1.1	0.9				
	3931	2	0.0	0.0	0.0	0.0	39	1.0	0.0	20.0	1	1.1	0.9				
	3932	2	0.0	0.0	0.0	0.0	39	1.0	0.0	20.0	1	1.1	0.9				
	3933	3	0.0	0.0	0.0	0.0	39	1.0	0.0	20.0	1	1.1	0.9				
	4001	1	0.0	0.0	0.0	0.0	40	1.0	0.0	500.0	1	1.1	0.9				
	4002	1	168.6841	21.998	0.0	0.0	40	1.0	0.0	500.0	1	1.1	0.9				
	4003	1	0.0	0.0	0.0	0.0	40	1.0	0.0	500.0	1	1.1	0.9				
	4004	1	270.4505	35.297	0.0	0.0	40	1.0	0.0	500.0	1	1.1	0.9				
	4005	1	480.1144	157.418	0.0	0.0	40	1.0	0.0	500.0	1	1.1	0.9				
	4006	1	0.0	0.0	0.0	0.0	40	1.0	0.0	500.0	1	1.1	0.9				
	4007	1	0.0	0.0	0.0	0.0	40	1.0	0.0	500.0	1	1.1	0.9				
	4008	1	285.1446	37.198	0.0	0.0	40	1.0	0.0	345.0	1	1.1	0.9				
	4009	1	2208.7429	431.39500000000004	0.0	0.0	40	1.0	0.0	230.0	1	1.1	0.9				
	4010	1	3133.6101	0.0	0.0	0.0	90	1.0	0.0	230.0	1	1.1	0.9				
	4031	2	0.0	0.0	0.0	0.0	40	1.0	0.0	20.0	1	1.1	0.9				
	4035	2	0.0	0.0	0.0	0.0	40	1.0	0.0	20.0	1	1.1	0.9				
	4039	2	0.0	0.0	0.0	0.0	40	1.0	0.0	20.0	1	1.1	0.9				
	4090	1	0.0	0.0	0.0	0.0	40	1.0	0.0	500.0	1	1.1	0.9				
	4091	1	0.0	0.0	0.0	0.0	40	1.0	0.0	500.0	1	1.1	0.9				
	4092	1	0.0	0.0	0.0	0.0	40	1.0	0.0	500.0	1	1.1	0.9				
	4093	1	0.0	0.0	0.0	0.0	40	1.0	0.0	500.0	1	1.1	0.9				
	4094	1	0.0	0.0	0.0	0.0	40	1.0	0.0	500.0	1	1.1	0.9				
	4095	1	0.0	0.0	0.0	0.0	40	1.0	0.0	500.0	1	1.1	0.9				
	4096	1	0.0	0.0	0.0	0.0	40	1.0	0.0	500.0	1	1.1	0.9				
	4097	1	0.0	0.0	0.0	0.0	40	1.0	0.0	500.0	1	1.1	0.9				
	4101	1	995.0274999999999	129.784	0.0	0.0	40	1.0	0.0	500.0	1	1.1	0.9				
	4102	1	480.649	68.664	0.0	0.0	40	1.0	0.0	500.0	1	1.1	0.9				
	4103	1	11.6269	1.509	0.0	0.0	40	1.0	0.0	500.0	1	1.1	0.9				
	4104	1	2527.7724	329.74	0.0	0.0	40	1.0	0.0	230.0	1	1.1	0.9				
	4131	2	0.0	0.0	0.0	0.0	40	1.0	0.0	20.0	1	1.1	0.9				
	4132	2	0.0	0.0	0.0	0.0	40	1.0	0.0	20.0	1	1.1	0.9				
	4201	1	5762.6589	461.013	0.0	0.0	40	1.0	0.0	500.0	1	1.1	0.9				
	4202	1	4558.2389	594.626	0.0	0.0	40	1.0	0.0	500.0	1	1.1	0.9				
	4203	1	4379.6262	571.331	0.0	0.0	40	1.0	0.0	500.0	1	1.1	0.9				
	4204	1	1014.5202000000002	132.34	0.0	0.0	40	1.0	0.0	500.0	1	1.1	0.9				
	4231	2	0.0	0.0	0.0	0.0	40	1.0	0.0	20.0	1	1.1	0.9				
	4232	2	0.0	0.0	0.0	0.0	40	1.0	0.0	20.0	1	1.1	0.9				
	5001	1	7574.0522	1721.375	0.0	0.0	50	1.0	0.0	500.0	1	1.1	0.9				
	5002	1	9003.9839	1174.359	0.0	0.0	50	1.0	0.0	500.0	1	1.1	0.9				
	5003	1	615.2178	80.253	0.0	0.0	50	1.0	0.0	230.0	1	1.1	0.9				
	5004	1	0.0	0.0	0.0	0.0	50	1.0	0.0	230.0	1	1.1	0.9				
	5031	2	0.0	0.0	0.0	0.0	50	1.0	0.0	20.0	1	1.1	0.9				
	5032	2	0.0	0.0	0.0	0.0	50	1.0	0.0	20.0	1	1.1	0.9				
	6101	1	0.0	0.0	0.0	0.0	61	1.0	0.0	500.0	1	1.1	0.9				
	6102	1	1053.1441	-345.277	0.0	0.0	61	1.0	0.0	345.0	1	1.1	0.9				
	6103	1	391.888	51.111	0.0	0.0	61	1.0	0.0	345.0	1	1.1	0.9				
	6104	1	1694.958	221.085	0.0	0.0	61	1.0	0.0	230.0	1	1.1	0.9				
	6132	2	0.0	0.0	0.0	0.0	61	1.0	0.0	20.0	1	1.1	0.9				
	6201	1	205.82	26.857	0.0	0.0	60	1.0	0.0	500.0	1	1.1	0.9				
...
];

%% generator data
%    bus    Pg    Qg    Qmax    Qmin    Vg    mBase    status    Pmax    Pmin    Pc1    Pc2    Qc1min    Qc1max    Qc2min    Qc2max    ramp_agc    ramp_10    ramp_30    ramp_q    apf
mpc.gen = [
	1032	1030.0	0.0	1030.0	-1030.0	1.0	100.0	1	2060.0	0.0															
	1032	357.0	0.0	357.0	-357.0	1.0	100.0	1	714.0	0.0															
	1034	2293.5	0.0	2294.0	-2294.0	1.0	100.0	1	4587.0	0.0															
	1034	917.5000000000001	0.0	918.0	-918.0	1.0	100.0	1	1835.0000000000002	0.0															
	1034	700.0	0.0	700.0	-700.0	1.0	100.0	1	1400.0	0.0															
	1131	307.5	0.0	308.0	-308.0	1.0	100.0	1	615.0	0.0															
	1131	1915.4	0.0	1916.0	-1916.0	1.0	100.0	1	3830.8	0.0															
	1131	120.0	0.0	120.0	-120.0	1.0	100.0	1	240.0	0.0															
	1232	1207.5	0.0	1208.0	-1208.0	1.0	100.0	1	2415.0	0.0															
	1232	628.0	0.0	628.0	-628.0	1.0	100.0	1	1256.0	0.0															
	1331	841.0	0.0	841.0	-841.0	1.0	100.0	1	1682.0	0.0															
	1331	1219.0	0.0	1219.0	-1219.0	1.0	100.0	1	2438.0	0.0															
	1333	302.5	0.0	303.0	-303.0	1.0	100.0	1	605.0	0.0															
	1333	2745.5	0.0	2746.0	-2746.0	1.0	100.0	1	5491.0	0.0															
	1333	37.5	0.0	38.0	-38.0	1.0	100.0	1	75.0	0.0															
	1431	3559.35	0.0	3559.0000000000005	-3559.0000000000005	1.0	100.0	1	7118.7	0.0															
	1431	2056.5	0.0	2057.0	-2057.0	1.0	100.0	1	4113.0	0.0															
	1431	15.0	0.0	15.0	-15.0	1.0	100.0	1	30.0	0.0															
	2030	1070.0	0.0	1070.0	-1070.0	1.0	100.0	1	2140.0	0.0															
	2030	349.5	0.0	350.0	-350.0	1.0	100.0	1	699.0	0.0															
	2130	200.0	0.0	200.0	-200.0	1.0	100.0	1	400.0	0.0															
	2130	253.5	0.0	254.0	-254.0	1.0	100.0	1	507.0	0.0															
	2130	250.0	0.0	250.0	-250.0	1.0	100.0	1	500.0	0.0															
	2130	86.0	0.0	86.0	-86.0	1.0	100.0	1	172.0	0.0															
	2233	353.0	93.0	304.0	-118.0	1.0	100.0	1	706.0	0.0															
	2233	626.5	215.0	611.0	-181.0	1.0	100.0	1	1253.0	0.0															
	2233	250.0	25.5	206.0	-155.0	1.0	100.0	1	500.0	0.0															
	2332	559.0	112.99999999999999	590.0	-364.0	1.0	100.0	1	1118.0	0.0															
	2438	781.5	137.0	728.0	-454.0	1.0	100.0	1	1563.0	0.0															
	2438	1859.0	367.0	1902.0	-1168.0	1.0	100.0	1	3718.0	0.0															
	2438	1401.5	624.0	2301.0	-1053.0	1.0	100.0	1	2803.0	0.0															
	2438	670.0	68.0	659.0	-523.0	1.0	100.0	1	1340.0	0.0															
	2438	473.00000000000006	119.5	436.00000000000006	-197.0	1.0	100.0	1	946.0000000000001	0.0															
	2438	636.5	4.0	561.0	-553.0	1.0	100.0	1	1273.0	0.0															
	2438	1983.5	380.0	1910.0000000000002	-1150.0	1.0	100.0	1	3967.0	0.0															
	2438	-503.0	0.25	0.5	0.0	1.0	100.0	1	0.0	-1006.0															
	2533	1116.0	140.0	1100.0	-819.9999999999999	1.0	100.0	1	2232.0	0.0															
	2630	1346.0	0.0	1346.0	-1346.0	1.0	100.0	1	2692.0	0.0															
	2631	159.0	0.0	159.0	-159.0	1.0	100.0	1	318.0	0.0															
	2634	950.0	0.0	950.0	-950.0	1.0	100.0	1	1900.0	0.0															
	2637	55.00000000000001	0.0	110.00000000000001	-110.00000000000001	1.0	100.0	1	110.00000000000001	0.0															
	2638	0.0	0.0	100.0	-100.0	1.0	100.0	1	1272.0	-1272.0															
	3133	21.0	6.5	42.0	-28.999999999999996	1.0	100.0	1	42.0	0.0															
	3133	0.05	0.0	500.0	-500.0	1.0	100.0	1	0.1	0.0															
	3135	184.5	19.0	239.0	-200.99999999999997	1.0	100.0	1	369.0	0.0															
	3135	13.0	7.5	100.0	-85.0	1.0	100.0	1	26.0	0.0															
	3234	60.5	13.0	101.0	-75.0	1.0	100.0	1	121.0	0.0															
	3234	1314.0	5.0	1244.0	-1234.0	1.0	100.0	1	2628.0	0.0															
	3234	353.5	85.0	382.0	-212.0	1.0	100.0	1	707.0	0.0															
	3234	345.0	10.0	75.0	-55.00000000000001	1.0	100.0	1	690.0	0.0															
	3333	345.0	86.0	398.0	-225.99999999999997	1.0	100.0	1	690.0	0.0															
	3333	106.5	29.5	202.0	-143.0	1.0	100.0	1	213.0	0.0															
	3432	147.0	102.0	509.99999999999994	-306.0	1.0	100.0	1	1218.0	-924.0															
	3433	314.0	28.000000000000004	231.0	-175.0	1.0	100.0	1	628.0	0.0															
	3433	1008.0	188.5	939.0	-562.0	1.0	100.0	1	2016.0	0.0															
	3531	434.0	202.5	1003.9999999999999	-599.0	1.0	100.0	1	868.0	0.0															
	3531	162.5	36.0	252.99999999999997	-181.0	1.0	100.0	1	325.0	0.0															
	3531	15.0	1.5	13.0	-10.0	1.0	100.0	1	30.0	0.0															
	3631	26.5	3.0	20.0	-14.000000000000002	1.0	100.0	1	53.0	0.0															
	3631	71.5	20.0	74.0	-34.0	1.0	100.0	1	143.0	0.0															
	3731	127.49999999999999	39.5	200.0	-121.0	1.0	100.0	1	254.99999999999997	0.0															
	3831	1133.5	97.5	1175.0	-980.0000000000001	1.0	100.0	1	2267.0	0.0															
	3835	690.5	91.5	662.0	-479.0	1.0	100.0	1	1381.0	0.0															
	3835	-254.99999999999997	0.25	0.5	0.0	1.0	100.0	1	0.0	-509.99999999999994															
	3836	510.50000000000006	62.0	476.0	-352.0	1.0	100.0	1	1021.0000000000001	0.0															
	3931	157.0	18.0	151.0	-114.99999999999999	1.0	100.0	1	314.0	0.0															
	3931	1848.0	169.0	1284.0	-946.0000000000001	1.0	100.0	1	3696.0	0.0															
	3932	739.0	325.0	1150.0	-500.0	1.0	100.0	1	1478.0	0.0															
	3933	295.0	140.5	363.0	-82.0	1.0	100.0	1	590.0	0.0															
	3933	95.5	11.0	77.0	-55.00000000000001	1.0	100.0	1	191.0	0.0															
	3933	657.0	96.5	500.0	-307.0	1.0	100.0	1	1314.0	0.0															
	3933	1752.4999999999998	107.5	1256.0	-1041.0	1.0	100.0	1	3504.9999999999995	0.0															
	3933	146.5	1.0	13.0	-11.0	1.0	100.0	1	293.0	0.0															
	3933	-224.5	0.25	0.5	0.0	1.0	100.0	1	0.0	-449.0															
	4039	102.0	0.0	102.0	-102.0	1.0	100.0	1	204.0	0.0															
	4039	1459.0	0.0	1459.0	-1459.0	1.0	100.0	1	2918.0	0.0															
	4039	187.5	0.0	188.0	-188.0	1.0	100.0	1	375.0	0.0															
	4031	501.49999999999994	0.0	501.99999999999994	-501.99999999999994	1.0	100.0	1	1002.9999999999999	0.0															
	4031	488.99999999999994	0.0	488.99999999999994	-488.99999999999994	1.0	100.0	1	977.9999999999999	0.0															
	4031	37.5	0.0	38.0	-38.0	1.0	100.0	1	75.0	0.0															
	4031	120.0	0.0	120.0	-120.0	1.0	100.0	1	240.0	0.0															
	4035	254.99999999999997	0.0	254.99999999999997	-254.99999999999997	1.0	100.0	1	509.99999999999994	0.0															
	4035	306.5	0.0	307.0	-307.0	1.0	100.0	1	613.0	0.0															
	4035	1835.5	0.0	1836.0	-1836.0	1.0	100.0	1	3671.0	0.0															
	4035	488.0	0.0	488.0	-488.0	1.0	100.0	1	976.0	0.0															
	4131	6481.5	0.0	6481.999999999999	-6481.999999999999	1.0	100.0	1	12963.0	0.0															
	4131	120.0	0.0	120.0	-120.0	1.0	100.0	1	240.0	0.0															
	4132	1472.5	0.0	1473.0	-1473.0	1.0	100.0	1	2945.0	0.0															
	4132	2846.5	0.0	2847.0	-2847.0	1.0	100.0	1	5693.0	0.0															
	4132	580.0	0.0	580.0	-580.0	1.0	100.0	1	1160.0	0.0															
	4132	230.50000000000003	0.0	231.0	-231.0	1.0	100.0	1	461.00000000000006	0.0															
	4132	87.5	0.0	88.0	-88.0	1.0	100.0	1	175.0	0.0															
	4231	728.0	0.0	728.0	-728.0	1.0	100.0	1	1456.0	0.0															
	4231	658.5	0.0	659.0	-659.0	1.0	100.0	1	1317.0	0.0															
	4231	1807.5	0.0	1807.9999999999998	-1807.9999999999998	1.0	100.0	1	3615.0	0.0															
	4231	23.5	0.0	24.0	-24.0	1.0	100.0	1	47.0	0.0															
	4232	592.0	0.0	592.0	-592.0	1.0	100.0	1	1184.0	0.0															
	4232	286.5	0.0	287.0	-287.0	1.0	100.0	1	573.0	0.0															
	4232	107.5	0.0	108.0	-108.0	1.0	100.0	1	215.0	0.0															
	5031	605.0	0.0	605.0	-605.0	1.0	100.0	1	1210.0	0.0															
	5031	4399.4	0.0	4399.0	-4399.0	1.0	100.0	1	8798.8	0.0															
	5032	2977.0	0.0	2977.0	-2977.0	1.0	100.0	1	5954.0	0.0															
	5032	2200.0	0.0	2200.0	-2200.0	1.0	100.0	1	4400.0	0.0															
	5032	2205.1	0.0	2205.0	-2205.0	1.0	100.0	1	4410.2	0.0															
	5032	54.0	0.0	54.0	-54.0	1.0	100.0	1	108.0	0.0															
	5032	270.5	0.0	271.0	-271.0	1.0	100.0	1	541.0	0.0															
	6132	7.5	0.0	8.0	-8.0	1.0	100.0	1	15.0	0.0															
	6132	146.5	0.0	147.0	-147.0	1.0	100.0	1	293.0	0.0															
	6132	1072.0	0.0	1072.0	-1072.0	1.0	100.0	1	2144.0	0.0															
	6132	17.5	0.0	18.0	-18.0	1.0	100.0	1	35.0	0.0															
	6132	118.0	0.0	118.0	-118.0	1.0	100.0	1	236.0	0.0															
	6231	1255.5	0.0	1256.0	-1256.0	1.0	100.0	1	2511.0	0.0															
	6231	70.0	0.0	70.0	-70.0	1.0	100.0	1	140.0	0.0															
	6235	63.5	0.0	64.0	-64.0	1.0	100.0	1	127.0	0.0															
	6235	346.5	0.0	347.0	-347.0	1.0	100.0	1	693.0	0.0															
	6235	95.0	0.0	95.0	-95.0	1.0	100.0	1	190.0	0.0															
	6333	1671.0	0.0	1671.0	-1671.0	1.0	100.0	1	3342.0	0.0															
	6333	124.0	0.0	124.0	-124.0	1.0	100.0	1	248.0	0.0															
	6335	967.5000000000001	0.0	968.0	-968.0	1.0	100.0	1	1935.0000000000002	0.0															
	6335	329.5	0.0	330.0	-330.0	1.0	100.0	1	659.0	0.0															
	6335	405.99999999999994	0.0	405.99999999999994	-405.99999999999994	1.0	100.0	1	811.9999999999999	0.0															
	6433	282.5	0.0	283.0	-283.0	1.0	100.0	1	565.0	0.0															
	6433	59.0	0.0	59.0	-59.0	1.0	100.0	1	118.0	0.0															
	6433	536.0	0.0	536.0	-536.0	1.0	100.0	1	1072.0	0.0															
	6433	11.5	0.0	12.0	-12.0	1.0	100.0	1	23.0	0.0															
	6433	25.0	0.0	25.0	-25.0	1.0	100.0	1	50.0	0.0															
	6533	1923.5	0.0	1923.9999999999998	-1923.9999999999998	1.0	100.0	1	3847.0	0.0															
	6533	18.5	0.0	19.0	-19.0	1.0	100.0	1	37.0	0.0															
	6533	880.0000000000001	0.0	880.0000000000001	-880.0000000000001	1.0	100.0	1	1760.0000000000002	0.0															
	6533	19.5	0.0	20.0	-20.0	1.0	100.0	1	39.0	0.0															
	6533	30.5	0.0	31.0	-31.0	1.0	100.0	1	61.0	0.0															
	7031	1418.5	0.0	1419.0	-1419.0	1.0	100.0	1	2837.0	0.0															
	7031	2092.0	0.0	2092.0	-2092.0	1.0	100.0	1	4184.0	0.0															
	7031	0.0	0.0	167.0	-167.0	1.0	100.0	1	333.0	-333.0															
	7031	298.5	0.0	299.0	-299.0	1.0	100.0	1	597.0	0.0															
	7031	0.05	0.0	1000.0	-1000.0	1.0	100.0	1	0.1	0.0															
	7032	826.0	0.0	826.0	-826.0	1.0	100.0	1	1652.0	0.0															
	7032	488.99999999999994	0.0	488.99999999999994	-488.99999999999994	1.0	100.0	1	977.9999999999999	0.0															
	7032	345.5	0.0	346.0	-346.0	1.0	100.0	1	691.0	0.0															
	7032	0.0	0.0	23.0	-23.0	1.0	100.0	1	200.0	-200.0															
	8033	786.0	0.0	786.0	-786.0	1.0	100.0	1	1572.0	0.0															
	8034	1280.0	0.0	1280.0	-1280.0	1.0	100.0	1	2560.0	0.0															
	8034	344.0	0.0	344.0	-344.0	1.0	100.0	1	688.0	0.0															
];

%% branch data
%    f_bus    t_bus    r    x    b    rateA    rateB    rateC    ratio    angle    status    angmin    angmax
mpc.branch = [
	1001	1201	0.0017636321250508573	0.031575988905148115	3.4844606525353328	996.0000000000001	996.0000000000001	996.0000000000001	0	0	1	-29.999999999999996	29.999999999999996								
	1001	1202	0.011037271696224253	0.0986200587486618	0.4043122689299326	326.0	326.0	326.0	0	0	1	-29.999999999999996	29.999999999999996								
	1002	1004	0.0005008701796109904	0.00530922390255751	0.04830869742672996	5934.0	5934.0	5934.0	0	0	1	-29.999999999999996	29.999999999999996								
	1002	1102	0.0017921315874536586	0.01990367363662646	2.5900056395686106	1583.0	1583.0	1583.0	0	0	1	-29.999999999999996	29.999999999999996								
	1002	1102	0.0018308983389123113	0.02033422280358457	2.557737618097894	1583.0	1583.0	1583.0	0	0	1	-29.999999999999996	29.999999999999996								
	1002	6506	0.004892510799329784	0.04444030577712923	0.7292193203007565	721.0	721.0	721.0	0	0	1	-29.999999999999996	29.999999999999996								
	1004	7001	0.010830688454580992	0.1544257855869699	1.8910724942508643	114.99999999999999	114.99999999999999	114.99999999999999	0	0	1	-29.999999999999996	29.999999999999996								
	1004	7002	0.009610017017813333	0.10819874119861186	1.9688714278515929	287.0	287.0	287.0	0	0	1	-29.999999999999996	29.999999999999996								
	1101	1401	0.002795557798140595	0.02106652478946551	1.0077912433077363	1485.0	1485.0	1485.0	0	0	1	-29.999999999999996	29.999999999999996								
	1101	1401	0.0027996911170063087	0.021097672299280466	1.0002332292988139	1485.0	1485.0	1485.0	0	0	1	-29.999999999999996	29.999999999999996								
	1201	1202	0.0007707624216034001	0.0053653072458968686	1.3807678265904775	5834.0	5834.0	5834.0	0	0	1	-29.999999999999996	29.999999999999996								
	1201	1402	0.0017839743374149172	0.02583274541962716	3.414490372974907	1216.0	1216.0	1216.0	0	0	1	-29.999999999999996	29.999999999999996								
	1201	2901	0.00207180557075447	0.013701941179999443	3.7893920838662956	2282.0	2282.0	2282.0	0	0	1	-29.999999999999996	29.999999999999996								
	1202	1302	0.0027995462709600855	0.02109658079298148	0.9894877012190751	1485.0	1485.0	1485.0	0	0	1	-29.999999999999996	29.999999999999996								
	1202	1402	0.0024238284853552996	0.03509019671487827	4.913240814997535	903.9999999999999	903.9999999999999	903.9999999999999	0	0	1	-29.999999999999996	29.999999999999996								
	1301	1302	0.002821620717203962	0.021262927504691397	1.0464767578958039	1485.0	1485.0	1485.0	0	0	1	-29.999999999999996	29.999999999999996								
	1301	1402	0.0027967204241151006	0.02107528601152927	1.1211073675843222	1485.0	1485.0	1485.0	0	0	1	-29.999999999999996	29.999999999999996								
	1301	1402	0.006413580042889552	0.0696183730453513	1.086429173307364	468.0	468.0	468.0	0	0	1	-29.999999999999996	29.999999999999996								
	1301	2603	0.0017874240054621083	0.025203676752376464	0.5700801953749266	1249.0	1249.0	1249.0	0	0	1	-29.999999999999996	29.999999999999996								
	1301	2901	0.010622975161708714	0.09491824321736254	0.4810256930865908	326.0	326.0	326.0	0	0	1	-29.999999999999996	29.999999999999996								
	1303	6507	0.007791784080890301	0.13152829907585864	1.136040167414541	231.0	231.0	231.0	0	0	1	-29.999999999999996	29.999999999999996								
	1401	1402	0.00039068971630068706	0.009376553153959239	0.8001228157416763	3288.0000000000005	3288.0000000000005	3288.0000000000005	0	0	1	-29.999999999999996	29.999999999999996								
	1401	1402	0.00039971282050745623	0.009593107652133571	0.9564647731791581	3288.0000000000005	3288.0000000000005	3288.0000000000005	0	0	1	-29.999999999999996	29.999999999999996								
	1401	2301	0.002611249433763255	0.02991342466293064	2.12345624308355	1061.0	1061.0	1061.0	0	0	1	-29.999999999999996	29.999999999999996								
	1401	2400	0.0025942729602141832	0.029718949097052815	2.1554462957259086	1061.0	1061.0	1061.0	0	0	1	-29.999999999999996	29.999999999999996								
	1403	2100	0.007877670788897988	0.06557578082856481	0.13571382335841325	446.0	446.0	446.0	0	0	1	-29.999999999999996	29.999999999999996								
	2000	2202	0.0014935646002634392	0.05843296218203135	0.11864783859902472	585.0	585.0	585.0	0	0	1	-29.999999999999996	29.999999999999996								
	2000	2302	0.001400730985505796	0.05480102492548818	0.057165947262333094	585.0	585.0	585.0	0	0	1	-29.999999999999996	29.999999999999996								
	2100	2302	0.008460676555505524	0.0704288721156323	0.2983006216406559	446.0	446.0	446.0	0	0	1	-29.999999999999996	29.999999999999996								
	2201	2301	0.0017745010113061005	0.025021455397302654	2.0814291623824452	1249.0	1249.0	1249.0	0	0	1	-29.999999999999996	29.999999999999996								
	2202	2203	0.0031107903037200773	0.02877481013048518	0.15606876123939062	1089.0	1089.0	1089.0	0	0	1	-29.999999999999996	29.999999999999996								
	2202	2203	0.0031696588323209397	0.029319344009435058	0.22566570522021226	1089.0	1089.0	1089.0	0	0	1	-29.999999999999996	29.999999999999996								
	2202	2503	0.003129305742420232	0.02894607793086011	0.18635525606436082	1089.0	1089.0	1089.0	0	0	1	-29.999999999999996	29.999999999999996								
	2203	2503	0.003141864458843047	0.02906224605836883	0.06917459888251835	1089.0	1089.0	1089.0	0	0	1	-29.999999999999996	29.999999999999996								
	2203	2503	0.003080749811182279	0.028496935578366887	0.1275189172396133	1089.0	1089.0	1089.0	0	0	1	-29.999999999999996	29.999999999999996								
	2400	2403	0.0004198078663482339	0.009045859948951613	0.7340695325908725	3486.9999999999995	3486.9999999999995	3486.9999999999995	0	0	1	-29.999999999999996	29.999999999999996								
	2401	2402	0.0002872785004632376	0.007725739646327853	0.5098126222629817	4192.0	4192.0	4192.0	0	0	1	-29.999999999999996	29.999999999999996								
	2401	2402	0.0003507379223693138	0.007515812607061925	0.612681561543971	4208.0	4208.0	4208.0	0	0	1	-29.999999999999996	29.999999999999996								
	2401	2404	0.0004343444305906968	0.011105397295265816	0.810024150123606	2806.0	2806.0	2806.0	0	0	1	-29.999999999999996	29.999999999999996								
	2401	2404	0.00043768979694264025	0.011190932228537974	0.6922127479900982	2806.0	2806.0	2806.0	0	0	1	-29.999999999999996	29.999999999999996								
	2401	2501	0.0006015800993394889	0.012833708708677265	1.0424432017061989	2466.0	2466.0	2466.0	0	0	1	-29.999999999999996	29.999999999999996								
	2401	2603	0.0002003801233935138	0.004107792527279865	0.25432426241813005	7695.999999999999	7695.999999999999	7695.999999999999	0	0	1	-29.999999999999996	29.999999999999996								
	2401	2901	0.002024769572358838	0.029154583209311018	4.737080593573001	1134.0	1134.0	1134.0	0	0	1	-29.999999999999996	29.999999999999996								
	2401	2902	0.001977767143459142	0.03226883155560259	3.9774371436250733	1018.0	1018.0	1018.0	0	0	1	-29.999999999999996	29.999999999999996								
	2402	2501	0.00021036925429558716	0.004578035673053071	0.19549355853797154	6905.0	6905.0	6905.0	0	0	1	-29.999999999999996	29.999999999999996								
	2403	2501	0.0003982801544398006	0.00926001355306429	0.7676332444932561	3394.0	3394.0	3394.0	0	0	1	-29.999999999999996	29.999999999999996								
	2404	3893	0.004911575482291761	0.15502979239477926	0.00998966967245317	3379.0	3379.0	3379.0	0	0	1	-29.999999999999996	29.999999999999996								
	2404	3895	0.004911575482296436	0.15502979239477896	0.07197077122834947	3379.0	3379.0	3379.0	0	0	1	-29.999999999999996	29.999999999999996								
	2404	3897	0.00491157548229738	0.1550297923947789	0.059154389333930996	3761.0	3761.0	3761.0	0	0	1	-29.999999999999996	29.999999999999996								
	2405	2406	0.0013716718294720833	0.02586581107138779	0.1604752285910765	1195.0	1195.0	1195.0	0	0	1	-29.999999999999996	29.999999999999996								
	2405	2410	0.0006504516233932767	0.011878247289360478	0.04679668043626563	2658.0	2658.0	2658.0	0	0	1	-29.999999999999996	29.999999999999996								
	2405	2410	0.0006473308534642326	0.011821257229980186	0.009993368623117912	2658.0	2658.0	2658.0	0	0	1	-29.999999999999996	29.999999999999996								
	2406	2408	0.001895045546834072	0.025732723472629393	0.03314704260212984	1222.0	1222.0	1222.0	0	0	1	-29.999999999999996	29.999999999999996								
	2406	2410	0.008206415665727095	0.06831233847959121	0.2551493657357043	446.0	446.0	446.0	0	0	1	-29.999999999999996	29.999999999999996								
	2407	2408	0.001103005158337738	0.012734695903270091	0.19799400281436838	2478.0	2478.0	2478.0	0	0	1	-29.999999999999996	29.999999999999996								
	2408	2409	0.001421065707381415	0.05559658209335185	0.12210403619080042	585.0	585.0	585.0	0	0	1	-29.999999999999996	29.999999999999996								
	2408	2409	0.001461347155386675	0.05717251632637861	0.1272598546891862	585.0	585.0	585.0	0	0	1	-29.999999999999996	29.999999999999996								
	2408	2411	0.0032165023083024157	0.039703699395322756	0.09714582159098135	798.0	798.0	798.0	0	0	1	-29.999999999999996	29.999999999999996								
	2408	2502	0.003133497979060522	0.028984856153653645	0.09227757814033732	1089.0	1089.0	1089.0	0	0	1	-29.999999999999996	29.999999999999996								
	2409	2502	0.003110423990613231	0.028771421733082968	0.07479075914235996	1089.0	1089.0	1089.0	0	0	1	-29.999999999999996	29.999999999999996								
	2409	2503	0.0031089683424428754	0.028757956985320982	0.14175296462756667	1089.0	1089.0	1089.0	0	0	1	-29.999999999999996	29.999999999999996								
	2410	2411	0.0027906740248548638	0.035730418661253455	0.13366003527651918	864.0	864.0	864.0	0	0	1	-29.999999999999996	29.999999999999996								
	2410	2411	0.0014061245390937782	0.034633456198365734	0.03960449052325774	928.9999999999999	928.9999999999999	928.9999999999999	0	0	1	-29.999999999999996	29.999999999999996								
	2502	2503	0.0032925839476627464	0.030456401300661684	0.009983560888832003	1089.0	1089.0	1089.0	0	0	1	-29.999999999999996	29.999999999999996								
	2502	2503	0.003132385631317559	0.028974566904955635	0.12843960936654678	1089.0	1089.0	1089.0	0	0	1	-29.999999999999996	29.999999999999996								
	2901	2902	0.0005684112368369357	0.014362533758873294	0.9871439630990421	2231.0	2231.0	2231.0	0	0	1	-29.999999999999996	29.999999999999996								
	2600	2602	0.0008234601281279624	0.016750383897985745	1.183541712607631	1892.0000000000002	1892.0000000000002	1892.0000000000002	0	0	1	-29.999999999999996	29.999999999999996								
	2600	2603	5.161885431780967e-7	0.0015901084916108525	0.16343184886254705	19867.0	19867.0	19867.0	0	0	1	-29.999999999999996	29.999999999999996								
	2600	2603	5.161292965516647e-7	0.0015900172349774884	0.06781248371922316	19867.0	19867.0	19867.0	0	0	1	-29.999999999999996	29.999999999999996								
	2600	2601	0.0007216855997225449	0.018149417235559535	1.5451987029775542	1696.0	1696.0	1696.0	0	0	1	-29.999999999999996	29.999999999999996								
	2601	2603	0.0008306933069378998	0.01885573691630129	1.6686794399716172	1675.0	1675.0	1675.0	0	0	1	-29.999999999999996	29.999999999999996								
	2603	2901	0.0018189663176126814	0.025648440963998428	0.5685091440325071	1249.0	1249.0	1249.0	0	0	1	-29.999999999999996	29.999999999999996								
	2604	6404	0.01083140654101046	0.09678061419782358	0.28490737371655545	326.0	326.0	326.0	0	0	1	-29.999999999999996	29.999999999999996								
	2604	6504	0.0018032456454903777	0.024544176652663362	0.5431511296317236	1286.0	1286.0	1286.0	0	0	1	-29.999999999999996	29.999999999999996								
	2604	6504	0.0018043808168911183	0.024559627596325767	0.3859048308870401	1286.0	1286.0	1286.0	0	0	1	-29.999999999999996	29.999999999999996								
	2605	2607	0.01072602221101102	0.07924224561987832	0.5625283901528649	396.0	396.0	396.0	0	0	1	-29.999999999999996	29.999999999999996								
	2606	2607	0.010928869291371738	0.08074084936292628	0.37946258504972125	396.0	396.0	396.0	0	0	1	-29.999999999999996	29.999999999999996								
	2608	2611	0.002153810429754525	0.032609273916607805	0.08753314715462933	942.0	942.0	942.0	0	0	1	-29.999999999999996	29.999999999999996								
	2608	2612	0.0029286079966047104	0.03837486250081619	0.10459709333777051	828.9999999999999	828.9999999999999	828.9999999999999	0	0	1	-29.999999999999996	29.999999999999996								
	2608	2618	0.0031147137048736164	0.047144062376713626	0.0795103582022499	674.0	674.0	674.0	0	0	1	-29.999999999999996	29.999999999999996								
	2608	2619	0.0022507618635557143	0.034080119048562174	0.10325614680308703	922.0000000000001	922.0000000000001	922.0000000000001	0	0	1	-29.999999999999996	29.999999999999996								
	2609	2615	0.00047027662782290667	0.00723425535237211	0.009982148371237495	4360.0	4360.0	4360.0	0	0	1	-29.999999999999996	29.999999999999996								
	2609	2617	0.00035011794016912343	0.005361806166463437	0.09175230519213969	5881.0	5881.0	5881.0	0	0	1	-29.999999999999996	29.999999999999996								
	2610	2613	0.0021784116410717576	0.033884202042562914	0.14380979164815266	922.0000000000001	922.0000000000001	922.0000000000001	0	0	1	-29.999999999999996	29.999999999999996								
	2610	2613	0.002320173829474428	0.0357677207801734	0.13783173714466013	860.0	860.0	860.0	0	0	1	-29.999999999999996	29.999999999999996								
	2610	2616	0.0020151738819233584	0.030819126327159618	0.02944190406571578	1026.0	1026.0	1026.0	0	0	1	-29.999999999999996	29.999999999999996								
	2610	2617	0.002795294476298853	0.04273517650558705	0.14033372683484965	734.0	734.0	734.0	0	0	1	-29.999999999999996	29.999999999999996								
	2611	2612	0.00028975082819357147	0.004336271013522646	0.009982257993224969	7262.0	7262.0	7262.0	0	0	1	-29.999999999999996	29.999999999999996								
	2612	2615	0.0022965904419457043	0.015875557492827347	0.012961083501048425	1975.0	1975.0	1975.0	0	0	1	-29.999999999999996	29.999999999999996								
	2612	2615	0.0022911320842434937	0.015837825701492718	0.052086580935538425	1975.0	1975.0	1975.0	0	0	1	-29.999999999999996	29.999999999999996								
	2612	2618	0.0014106240282343073	0.009674279679460196	0.062177352929177615	3233.0	3233.0	3233.0	0	0	1	-29.999999999999996	29.999999999999996								
	2612	2618	0.0014283862198380952	0.009796095560747035	0.009981899504619697	3233.0	3233.0	3233.0	0	0	1	-29.999999999999996	29.999999999999996								
	2612	2618	0.0016094896832914791	0.009706922248645873	0.023091359530336898	3210.0	3210.0	3210.0	0	0	1	-29.999999999999996	29.999999999999996								
	2612	2618	0.0016059013486390968	0.009685280801785972	0.00997998088476319	3210.0	3210.0	3210.0	0	0	1	-29.999999999999996	29.999999999999996								
	2612	2619	0.0002700490771931288	0.00393071434476052	0.03841605612622968	8019.0	8019.0	8019.0	0	0	1	-29.999999999999996	29.999999999999996								
	2612	2619	0.00026982485158329357	0.003927450616442244	0.009989401293628974	8019.0	8019.0	8019.0	0	0	1	-29.999999999999996	29.999999999999996								
	2612	2619	0.00026979651214901964	0.003927038120232593	0.022562654491168052	8019.0	8019.0	8019.0	0	0	1	-29.999999999999996	29.999999999999996								
	2612	2620	0.0013749301565322534	0.011119000388735359	0.17117181477915505	2810.0	2810.0	2810.0	0	0	1	-29.999999999999996	29.999999999999996								
	2612	2620	0.0013896174879944193	0.011237776199441534	0.009980346668590915	2810.0	2810.0	2810.0	0	0	1	-29.999999999999996	29.999999999999996								
	2613	2616	0.00036997598558809766	0.0036597624516491968	0.10244924038146559	8587.0	8587.0	8587.0	0	0	1	-29.999999999999996	29.999999999999996								
	2613	2617	0.0005501084494520452	0.005861155477759495	0.01534586750720399	5367.0	5367.0	5367.0	0	0	1	-29.999999999999996	29.999999999999996								
	2614	2616	0.0007375818333984755	0.010356457231087893	0.06984008935315555	3074.0	3074.0	3074.0	0	0	1	-29.999999999999996	29.999999999999996								
	2614	2616	0.0007320166959511014	0.010278316602971826	0.010085497560142672	3074.0	3074.0	3074.0	0	0	1	-29.999999999999996	29.999999999999996								
	2615	2617	0.001199880251425438	0.012543285971501466	0.06972241823771584	2528.0	2528.0	2528.0	0	0	1	-29.999999999999996	29.999999999999996								
	2615	2617	0.0011887663481181697	0.01242710365508464	0.08948394923425841	2528.0	2528.0	2528.0	0	0	1	-29.999999999999996	29.999999999999996								
	2615	2620	0.0012846496339565165	0.009825562430071598	0.009985742376145926	3200.0	3200.0	3200.0	0	0	1	-29.999999999999996	29.999999999999996								
	2616	2617	0.001096997966945591	0.011857550735324483	0.009985972247601586	2646.0	2646.0	2646.0	0	0	1	-29.999999999999996	29.999999999999996								
	3101	3102	0.0010911960919823785	0.012598354857344878	0.09860946946827345	2478.0	2478.0	2478.0	0	0	1	-29.999999999999996	29.999999999999996								
	3101	3102	0.001086981493699647	0.012549695404711307	0.024194611542773276	2478.0	2478.0	2478.0	0	0	1	-29.999999999999996	29.999999999999996								
	3102	3103	0.001122152095239526	0.012955755983689202	0.12857322294546816	2478.0	2478.0	2478.0	0	0	1	-29.999999999999996	29.999999999999996								
	3102	3103	0.0010962084966871025	0.012656225347569992	0.043075386029599025	2478.0	2478.0	2478.0	0	0	1	-29.999999999999996	29.999999999999996								
	3102	3103	0.001105373932728033	0.012762044472173878	0.033488024939734115	2478.0	2478.0	2478.0	0	0	1	-29.999999999999996	29.999999999999996								
	3102	3302	0.0011044303824006977	0.012751150754665815	0.00998626545192528	2478.0	2478.0	2478.0	0	0	1	-29.999999999999996	29.999999999999996								
	3103	3204	0.0010968387439500183	0.012663501838372523	0.02041038770415891	2478.0	2478.0	2478.0	0	0	1	-29.999999999999996	29.999999999999996								
	3103	3204	0.0010883173089040604	0.012565117997937471	0.00998901221214559	2478.0	2478.0	2478.0	0	0	1	-29.999999999999996	29.999999999999996								
	3103	3305	0.00109552372458148	0.012648319342614477	0.2687339899090832	2478.0	2478.0	2478.0	0	0	1	-29.999999999999996	29.999999999999996								
	3103	3305	0.0010801235730184832	0.012470517593722018	0.2000467859684008	2478.0	2478.0	2478.0	0	0	1	-29.999999999999996	29.999999999999996								
	3104	3105	0.003103341720303447	0.028705910734347487	0.13950467311956513	1089.0	1089.0	1089.0	0	0	1	-29.999999999999996	29.999999999999996								
	3201	3202	0.0010981010115242707	0.01267807529171173	0.21071998998797317	2478.0	2478.0	2478.0	0	0	1	-29.999999999999996	29.999999999999996								
	3201	3202	0.0010999880599056923	0.012699862122903017	0.015180101496088193	2478.0	2478.0	2478.0	0	0	1	-29.999999999999996	29.999999999999996								
	3201	3203	0.001096961912003118	0.012664923870349197	0.1416829928473271	2478.0	2478.0	2478.0	0	0	1	-29.999999999999996	29.999999999999996								
	3201	3203	0.001097776842560884	0.012674332614009739	0.04179709991292748	2478.0	2478.0	2478.0	0	0	1	-29.999999999999996	29.999999999999996								
	3201	3923	0.003127361616214569	0.028928094744479077	0.009984655613683727	1089.0	1089.0	1089.0	0	0	1	-29.999999999999996	29.999999999999996								
	3201	3923	0.0030879168415014154	0.02856323058594983	0.24309358372004922	1089.0	1089.0	1089.0	0	0	1	-29.999999999999996	29.999999999999996								
	3201	3924	0.0010940021482741661	0.012630752052710104	0.0322446213088917	2478.0	2478.0	2478.0	0	0	1	-29.999999999999996	29.999999999999996								
	3201	3924	0.0011009967673738636	0.012711508109140431	0.11910281595445742	2478.0	2478.0	2478.0	0	0	1	-29.999999999999996	29.999999999999996								
	3202	3203	0.001108042991537864	0.012792859969362651	0.009983302564573512	2478.0	2478.0	2478.0	0	0	1	-29.999999999999996	29.999999999999996								
	3202	3203	0.0031279865884405304	0.02893387575967045	0.17079969559780037	1089.0	1089.0	1089.0	0	0	1	-29.999999999999996	29.999999999999996								
	3202	3204	0.0011188228202573044	0.012917317992520364	0.06485384760777742	2478.0	2478.0	2478.0	0	0	1	-29.999999999999996	29.999999999999996								
	3202	3205	0.0011120128470912924	0.01283869375630276	0.07420543914016105	2478.0	2478.0	2478.0	0	0	1	-29.999999999999996	29.999999999999996								
	3202	3924	0.003104211815787628	0.028713959119749076	0.1750858192785119	1089.0	1089.0	1089.0	0	0	1	-29.999999999999996	29.999999999999996								
	3202	3924	0.0031000157445709563	0.028675145461731076	0.5213116635480126	1089.0	1089.0	1089.0	0	0	1	-29.999999999999996	29.999999999999996								
	3203	3204	0.0011032383705707426	0.01273738843761523	0.05453969581119438	2478.0	2478.0	2478.0	0	0	1	-29.999999999999996	29.999999999999996								
	3203	3303	0.0011105570841105218	0.012821886311624568	0.16377118017446574	2478.0	2478.0	2478.0	0	0	1	-29.999999999999996	29.999999999999996								
	3203	3303	0.0031323661155716917	0.0289743863883615	0.18446631799793936	1089.0	1089.0	1089.0	0	0	1	-29.999999999999996	29.999999999999996								
	3203	3305	0.0011063530319320395	0.012773348617378848	0.07204020304779214	2478.0	2478.0	2478.0	0	0	1	-29.999999999999996	29.999999999999996								
	3203	3923	0.003081676799083659	0.028505510196412523	0.28152426708627126	1089.0	1089.0	1089.0	0	0	1	-29.999999999999996	29.999999999999996								
	3203	3923	0.0030978926423169003	0.02865550674326506	0.15660876093674514	1089.0	1089.0	1089.0	0	0	1	-29.999999999999996	29.999999999999996								
	3204	3205	0.0010945474155476457	0.012637047410940407	0.009983347233455743	2478.0	2478.0	2478.0	0	0	1	-29.999999999999996	29.999999999999996								
	3204	3205	0.001098466867791905	0.012682299268417137	0.009989847181388274	2478.0	2478.0	2478.0	0	0	1	-29.999999999999996	29.999999999999996								
	3204	3923	0.00314467692444587	0.029088261361988846	0.16058085743913875	1089.0	1089.0	1089.0	0	0	1	-29.999999999999996	29.999999999999996								
	3204	3923	0.0031225933258280337	0.028883988078794397	0.13896057488900665	1089.0	1089.0	1089.0	0	0	1	-29.999999999999996	29.999999999999996								
	3205	3914	0.0031372605861279294	0.02901966023413767	0.1742001980450997	1089.0	1089.0	1089.0	0	0	1	-29.999999999999996	29.999999999999996								
	3205	3915	0.003122546696189966	0.02888355675622362	0.17158680949623503	1089.0	1089.0	1089.0	0	0	1	-29.999999999999996	29.999999999999996								
	3301	3902	0.0005330065429556118	0.013043575098470263	0.009979086364671914	2434.0	2434.0	2434.0	0	0	1	-29.999999999999996	29.999999999999996								
	3301	3903	0.004911693483652198	0.15502978491025787	0.12043398765601514	4184.0	4184.0	4184.0	0	0	1	-29.999999999999996	29.999999999999996								
	3302	3304	0.0011005334324634985	0.012706158696845571	0.009979293007510884	2478.0	2478.0	2478.0	0	0	1	-29.999999999999996	29.999999999999996								
	3302	3304	0.0010992228100296431	0.01269102696519399	0.03630319853788058	2478.0	2478.0	2478.0	0	0	1	-29.999999999999996	29.999999999999996								
	3303	3304	0.001094367262383247	0.0126349674609529	0.04281569268955975	2478.0	2478.0	2478.0	0	0	1	-29.999999999999996	29.999999999999996								
	3303	3304	0.0011089752461486291	0.012803623272571544	0.009980898323934406	2478.0	2478.0	2478.0	0	0	1	-29.999999999999996	29.999999999999996								
	3303	3304	0.0011020913334463932	0.012724145371821668	0.00998857131367018	2478.0	2478.0	2478.0	0	0	1	-29.999999999999996	29.999999999999996								
	3303	3918	0.003090126182082229	0.028583667004776672	0.12441300995240288	1089.0	1089.0	1089.0	0	0	1	-29.999999999999996	29.999999999999996								
	3303	3918	0.003097066752744451	0.02864786728217172	0.16905930651353712	1089.0	1089.0	1089.0	0	0	1	-29.999999999999996	29.999999999999996								
	3305	3923	0.0031358979087957295	0.029007055445456342	0.22866889713306074	1089.0	1089.0	1089.0	0	0	1	-29.999999999999996	29.999999999999996								
	3401	3402	0.0031909173157023286	0.029515985079474123	0.0965207129978007	1089.0	1089.0	1089.0	0	0	1	-29.999999999999996	29.999999999999996								
	3401	3402	0.0031537063436914933	0.029171783592978583	0.16599835222402848	1089.0	1089.0	1089.0	0	0	1	-29.999999999999996	29.999999999999996								
	3401	3404	0.0031228648819074975	0.0288865000449714	0.16461586857110416	1089.0	1089.0	1089.0	0	0	1	-29.999999999999996	29.999999999999996								
	3401	3405	0.003106520385681789	0.028735313680521988	0.21564090612589942	1089.0	1089.0	1089.0	0	0	1	-29.999999999999996	29.999999999999996								
	3401	3405	0.003142805236068842	0.029070948546954196	0.17335611414222973	1089.0	1089.0	1089.0	0	0	1	-29.999999999999996	29.999999999999996								
	3401	3804	0.0031144479736245146	0.02880864374366129	0.07284315437696336	1089.0	1089.0	1089.0	0	0	1	-29.999999999999996	29.999999999999996								
	3403	3404	0.0031221742319167607	0.02888011156912925	0.009979783022773305	1089.0	1089.0	1089.0	0	0	1	-29.999999999999996	29.999999999999996								
	3403	3804	0.0030940976607721324	0.02862040323451577	0.0838938101687306	1089.0	1089.0	1089.0	0	0	1	-29.999999999999996	29.999999999999996								
	3404	3804	0.0031436887966246143	0.02907912118947901	0.1328209827676191	1089.0	1089.0	1089.0	0	0	1	-29.999999999999996	29.999999999999996								
	3404	3804	0.003131927984304643	0.02897033367759421	0.14483166676351952	1089.0	1089.0	1089.0	0	0	1	-29.999999999999996	29.999999999999996								
	3404	3917	0.0031157135561574833	0.028820350209191072	0.20623460417788017	1089.0	1089.0	1089.0	0	0	1	-29.999999999999996	29.999999999999996								
	3404	3918	0.003129624354333916	0.028949025047358766	0.009994487445688547	1089.0	1089.0	1089.0	0	0	1	-29.999999999999996	29.999999999999996								
	3405	3907	0.0031331381011212773	0.02898152741402406	0.22481907503292375	1089.0	1089.0	1089.0	0	0	1	-29.999999999999996	29.999999999999996								
	3405	3907	0.0030823271808017973	0.028511526404824315	0.009980755860200663	1089.0	1089.0	1089.0	0	0	1	-29.999999999999996	29.999999999999996								
	3501	3914	0.0030777848586457826	0.028469509769871514	0.20174144747774364	1089.0	1089.0	1089.0	0	0	1	-29.999999999999996	29.999999999999996								
	3501	3915	0.0031025459525435423	0.028698549891420632	0.1327676677094155	1089.0	1089.0	1089.0	0	0	1	-29.999999999999996	29.999999999999996								
	3601	3925	0.003114191339665148	0.02880626971140874	0.12543843876617886	1089.0	1089.0	1089.0	0	0	1	-29.999999999999996	29.999999999999996								
	3701	3926	0.003124073640400777	0.028897681271116443	0.009998458688122122	1089.0	1089.0	1089.0	0	0	1	-29.999999999999996	29.999999999999996								
	3701	3926	0.003159593314281207	0.029226238254476587	0.08107593022345468	1089.0	1089.0	1089.0	0	0	1	-29.999999999999996	29.999999999999996								
	3801	3802	0.000796338570225963	0.01952541497050155	1.3208829249577743	1630.0	1630.0	1630.0	0	0	1	-29.999999999999996	29.999999999999996								
	3801	3803	0.0008185249819414391	0.019635190815881148	1.173834427393056	1513.0	1513.0	1513.0	0	0	1	-29.999999999999996	29.999999999999996								
	3801	3803	0.0008994903718633984	0.021577429396844643	1.5030104272044886	1513.0	1513.0	1513.0	0	0	1	-29.999999999999996	29.999999999999996								
	3802	3891	0.000719201089233469	0.01598224624677833	1.14783357544958	1973.0	1973.0	1973.0	0	0	1	-29.999999999999996	29.999999999999996								
	3802	3901	0.000840624704717203	0.020104096438442205	0.009988596010793419	1590.0	1590.0	1590.0	0	0	1	-29.999999999999996	29.999999999999996								
	3803	3891	0.004912923404418923	0.1550297068888143	0.009982021745299356	3166.0	3166.0	3166.0	0	0	1	-29.999999999999996	29.999999999999996								
	3803	3892	0.004911575482315566	0.15502979239477774	0.03343591232807754	3379.0	3379.0	3379.0	0	0	1	-29.999999999999996	29.999999999999996								
	3803	3894	0.004911575482310569	0.15502979239477807	0.08206244952483384	3347.0	3347.0	3347.0	0	0	1	-29.999999999999996	29.999999999999996								
	3803	3896	0.004911575482309548	0.15502979239477813	0.009991712483982873	3379.0	3379.0	3379.0	0	0	1	-29.999999999999996	29.999999999999996								
	3803	3901	0.001547311796599663	0.014866329022021238	0.009994452684065493	2138.0	2138.0	2138.0	0	0	1	-29.999999999999996	29.999999999999996								
	3804	3806	0.003120075249135031	0.028860695941476954	0.08012105584259502	1089.0	1089.0	1089.0	0	0	1	-29.999999999999996	29.999999999999996								
	3805	3806	0.003100961218640256	0.02868389108612692	0.23346924217234194	1089.0	1089.0	1089.0	0	0	1	-29.999999999999996	29.999999999999996								
	3892	3893	0.0012416657459820564	0.02684218791819407	2.043737020599008	1187.0	1187.0	1187.0	0	0	1	-29.999999999999996	29.999999999999996								
	3894	3895	0.0012220406520084617	0.026447740776160494	1.8765895966981736	1186.0	1186.0	1186.0	0	0	1	-29.999999999999996	29.999999999999996								
	3896	3897	0.0011186790341528618	0.02514031289783503	1.8800874213896335	1254.0	1254.0	1254.0	0	0	1	-29.999999999999996	29.999999999999996								
	3901	3902	0.0005280275890351919	0.012921731636387324	0.009980342803898954	2434.0	2434.0	2434.0	0	0	1	-29.999999999999996	29.999999999999996								
	3901	3903	0.0009421509174270977	0.03691609965075976	1.3847173134496185	867.0	867.0	867.0	0	0	1	-29.999999999999996	29.999999999999996								
	3901	8002	0.004911589877218055	0.15502979148175594	0.01000311508331919	2374.0	2374.0	2374.0	0	0	1	-29.999999999999996	29.999999999999996								
	3903	3904	0.0049115862939255375	0.15502979170903278	0.009981252424744723	2877.0	2877.0	2877.0	0	0	1	-29.999999999999996	29.999999999999996								
	3903	3905	0.0009846868394189265	0.01039949875899735	0.012191610501949505	3039.0	3039.0	3039.0	0	0	1	-29.999999999999996	29.999999999999996								
	3903	8002	0.0017198057287772508	0.059609474719741845	2.494326488135134	553.0	553.0	553.0	0	0	1	-29.999999999999996	29.999999999999996								
	3904	3905	0.0016000768186748369	0.012290590055004632	0.010242225051271685	2549.0	2549.0	2549.0	0	0	1	-29.999999999999996	29.999999999999996								
	3905	3906	0.0007202708450877933	0.0034613015609943737	0.027964278119805588	8938.0	8938.0	8938.0	0	0	1	-29.999999999999996	29.999999999999996								
	3906	4001	0.0005299010091757908	0.00455914830450688	0.009979525719200319	6881.0	6881.0	6881.0	0	0	1	-29.999999999999996	29.999999999999996								
	3906	4001	0.0005288047324483441	0.004549716187762304	0.038710345599606684	6881.0	6881.0	6881.0	0	0	1	-29.999999999999996	29.999999999999996								
	3907	3908	0.003120430023407887	0.02886397808133372	0.13648793822977906	1089.0	1089.0	1089.0	0	0	1	-29.999999999999996	29.999999999999996								
	3907	3923	0.0031644773483766476	0.029271415439783652	0.29964558742518416	1089.0	1089.0	1089.0	0	0	1	-29.999999999999996	29.999999999999996								
...
];

%%-----  OPF Data  -----%%
%% cost data
%    1    startup    shutdown    n    x1    y1    ...    xn    yn
%    2    startup    shutdown    n    c(n-1)    ...    c0
mpc.gencost = [
	2	0.0	0.0	2	23.55253	0.0
	2	0.0	0.0	2	17.52574	0.0
	2	0.0	0.0	2	50.253548	0.0
	2	0.0	0.0	2	7.78454	0.0
	2	0.0	0.0	2	7.164105000000001	0.0
	2	0.0	0.0	2	32.436958	0.0
	2	0.0	0.0	2	31.156469	0.0
	2	0.0	0.0	2	22.737499	0.0
	2	0.0	0.0	2	19.952184	0.0
	2	0.0	0.0	2	31.242137	0.0
	2	0.0	0.0	2	24.807784	0.0
	2	0.0	0.0	2	28.383968	0.0
	2	0.0	0.0	2	34.755431	0.0
	2	0.0	0.0	2	7.698014	0.0
	2	0.0	0.0	2	105.404954	0.0
	2	0.0	0.0	2	40.082606	0.0
	2	0.0	0.0	2	25.63009	0.0
	2	0.0	0.0	2	103.348768	0.0
	2	0.0	0.0	2	6.769987000000001	0.0
	2	0.0	0.0	2	11.50831	0.0
	2	0.0	0.0	2	37.856831	0.0
	2	0.0	0.0	2	36.108116	0.0
	2	0.0	0.0	2	49.860247	0.0
	2	0.0	0.0	2	19.863282	0.0
	2	0.0	0.0	2	28.216009	0.0
	2	0.0	0.0	2	25.247027	0.0
	2	0.0	0.0	2	39.435718	0.0
	2	0.0	0.0	2	22.418634	0.0
	2	0.0	0.0	2	25.395707	0.0
	2	0.0	0.0	2	112.919983	0.0
	2	0.0	0.0	2	29.447096	0.0
	2	0.0	0.0	2	27.360187	0.0
	2	0.0	0.0	2	43.05455400000001	0.0
	2	0.0	0.0	2	21.95488	0.0
	2	0.0	0.0	2	21.935047	0.0
	2	0.0	0.0	2	0.0	0.0
	2	0.0	0.0	2	32.738635	0.0
	2	0.0	0.0	2	24.642891	0.0
	2	0.0	0.0	2	17.386501	0.0
	2	0.0	0.0	2	25.623984	0.0
	2	0.0	0.0	2	36.008261	0.0
	2	0.0	0.0	2	33.638878	0.0
	2	0.0	0.0	2	60.295192	0.0
	2	0.0	0.0	2	115.784252	0.0
	2	0.0	0.0	2	19.747758	0.0
	2	0.0	0.0	2	139.406671	0.0
	2	0.0	0.0	2	40.62684	0.0
	2	0.0	0.0	2	33.390411	0.0
	2	0.0	0.0	2	9.116809	0.0
	2	0.0	0.0	2	22.599236	0.0
	2	0.0	0.0	2	36.557379	0.0
	2	0.0	0.0	2	29.600547	0.0
	2	0.0	0.0	2	23.127115	0.0
	2	0.0	0.0	2	19.029025	0.0
	2	0.0	0.0	2	26.628665	0.0
	2	0.0	0.0	2	23.06917	0.0
	2	0.0	0.0	2	19.755158	0.0
	2	0.0	0.0	2	111.468783	0.0
	2	0.0	0.0	2	37.36433	0.0
	2	0.0	0.0	2	29.305594000000003	0.0
	2	0.0	0.0	2	43.487946	0.0
	2	0.0	0.0	2	18.009089	0.0
	2	0.0	0.0	2	27.186796	0.0
	2	0.0	0.0	2	0.0	0.0
	2	0.0	0.0	2	39.855613	0.0
	2	0.0	0.0	2	52.291471	0.0
	2	0.0	0.0	2	32.821502	0.0
	2	0.0	0.0	2	22.434142	0.0
	2	0.0	0.0	2	35.060251	0.0
	2	0.0	0.0	2	58.640953	0.0
	2	0.0	0.0	2	40.111583	0.0
	2	0.0	0.0	2	10.724076	0.0
	2	0.0	0.0	2	29.604602	0.0
	2	0.0	0.0	2	7.148098	0.0
	2	0.0	0.0	2	14.120280000000001	0.0
	2	0.0	0.0	2	32.489744	0.0
	2	0.0	0.0	2	32.920521	0.0
	2	0.0	0.0	2	28.879314	0.0
	2	0.0	0.0	2	7.795262	0.0
	2	0.0	0.0	2	14.49579	0.0
	2	0.0	0.0	2	33.529629	0.0
	2	0.0	0.0	2	14.148633	0.0
	2	0.0	0.0	2	22.360086000000003	0.0
	2	0.0	0.0	2	23.153973	0.0
	2	0.0	0.0	2	32.076694	0.0
	2	0.0	0.0	2	31.799668	0.0
	2	0.0	0.0	2	48.375219	0.0
	2	0.0	0.0	2	20.048511	0.0
	2	0.0	0.0	2	13.581555000000002	0.0
	2	0.0	0.0	2	31.58479	0.0
	2	0.0	0.0	2	45.195796	0.0
	2	0.0	0.0	2	39.759127	0.0
	2	0.0	0.0	2	14.530332	0.0
	2	0.0	0.0	2	15.136833	0.0
	2	0.0	0.0	2	42.828324	0.0
	2	0.0	0.0	2	14.38957	0.0
	2	0.0	0.0	2	38.966466	0.0
	2	0.0	0.0	2	15.486578	0.0
	2	0.0	0.0	2	41.492611	0.0
	2	0.0	0.0	2	28.466295000000002	0.0
	2	0.0	0.0	2	27.255650000000003	0.0
	2	0.0	0.0	2	24.837547	0.0
	2	0.0	0.0	2	28.019241	0.0
	2	0.0	0.0	2	11.786936	0.0
	2	0.0	0.0	2	29.985739	0.0
	2	0.0	0.0	2	28.815976000000003	0.0
	2	0.0	0.0	2	37.698432	0.0
	2	0.0	0.0	2	48.83129300000001	0.0
	2	0.0	0.0	2	32.211888	0.0
	2	0.0	0.0	2	105.10465600000002	0.0
	2	0.0	0.0	2	37.879273	0.0
	2	0.0	0.0	2	33.634935	0.0
	2	0.0	0.0	2	30.107834000000004	0.0
	2	0.0	0.0	2	37.793235	0.0
	2	0.0	0.0	2	31.239418	0.0
	2	0.0	0.0	2	28.663274	0.0
	2	0.0	0.0	2	24.405861	0.0
	2	0.0	0.0	2	38.01667	0.0
	2	0.0	0.0	2	32.247846	0.0
	2	0.0	0.0	2	24.38896	0.0
	2	0.0	0.0	2	11.81616	0.0
	2	0.0	0.0	2	29.852868	0.0
	2	0.0	0.0	2	28.252173	0.0
	2	0.0	0.0	2	102.698216	0.0
	2	0.0	0.0	2	23.707527	0.0
	2	0.0	0.0	2	26.935133	0.0
	2	0.0	0.0	2	19.266401	0.0
	2	0.0	0.0	2	27.889540000000004	0.0
	2	0.0	0.0	2	20.456741	0.0
	2	0.0	0.0	2	26.092954	0.0
	2	0.0	0.0	2	37.210311	0.0
	2	0.0	0.0	2	27.338561	0.0
	2	0.0	0.0	2	7.157129	0.0
	2	0.0	0.0	2	38.956112	0.0
	2	0.0	0.0	2	40.642352	0.0
	2	0.0	0.0	2	18.781578	0.0
	2	0.0	0.0	2	43.330859000000004	0.0
	2	0.0	0.0	2	31.905335	0.0
	2	0.0	0.0	2	9.594434	0.0
	2	0.0	0.0	2	25.215165	0.0
	2	0.0	0.0	2	114.36566300000001	0.0
	2	0.0	0.0	2	24.14915	0.0
	2	0.0	0.0	2	24.948779000000002	0.0
];

